<?xml version="1.0" encoding="UTF-8"?>

<!-- generated on 2026-02-26T11:26:52.445801+05:30 by Eclipse SUMO netconvert 1.26.0
<netconvertConfiguration xmlns:xsi="http://www.w3.org/2001/XMLSchema-instance" xsi:noNamespaceSchemaLocation="http://sumo.dlr.de/xsd/netconvertConfiguration.xsd">

    <input>
        <osm-files value="nets/silkboard/silkboard.osm"/>
    </input>

    <output>
        <output-file value="nets/silkboard/silkboard.net.xml"/>
    </output>

    <projection>
        <proj.utm value="true"/>
    </projection>

</netconvertConfiguration>
-->

<net version="1.20" junctionCornerDetail="5" limitTurnSpeed="5.50" xmlns:xsi="http://www.w3.org/2001/XMLSchema-instance" xsi:noNamespaceSchemaLocation="http://sumo.dlr.de/xsd/net_file.xsd">

    <location netOffset="-782235.55,-1427886.30" convBoundary="0.00,0.00,3410.76,2343.06" origBoundary="77.600978,12.903202,77.632363,12.924377" projParameter="+proj=utm +zone=43 +ellps=WGS84 +datum=WGS84 +units=m +no_defs"/>

    <type id="highway.footway" priority="1" numLanes="1" speed="2.78" allow="pedestrian" oneway="1" width="2.00"/>
    <type id="highway.living_street" priority="2" numLanes="1" speed="2.78" disallow="tram rail_urban rail rail_electric rail_fast ship container cable_car subway aircraft wheelchair scooter drone" oneway="0"/>
    <type id="highway.path" priority="1" numLanes="1" speed="5.56" allow="pedestrian bicycle" oneway="0" width="2.00"/>
    <type id="highway.primary" priority="12" numLanes="2" speed="27.78" disallow="tram rail_urban rail rail_electric rail_fast ship container cable_car subway aircraft wheelchair scooter drone" oneway="0"/>
    <type id="highway.primary_link" priority="7" numLanes="1" speed="22.22" disallow="tram rail_urban rail rail_electric rail_fast ship container cable_car subway aircraft wheelchair scooter drone" oneway="0"/>
    <type id="highway.residential" priority="3" numLanes="1" speed="13.89" disallow="tram rail_urban rail rail_electric rail_fast ship container cable_car subway aircraft wheelchair scooter drone" oneway="0"/>
    <type id="highway.secondary" priority="11" numLanes="1" speed="27.78" disallow="tram rail_urban rail rail_electric rail_fast ship container cable_car subway aircraft wheelchair scooter drone" oneway="0"/>
    <type id="highway.service" priority="1" numLanes="1" speed="5.56" allow="pedestrian delivery bicycle" oneway="0"/>
    <type id="highway.steps" priority="1" numLanes="1" speed="1.39" allow="pedestrian" oneway="1" width="2.00"/>
    <type id="highway.tertiary" priority="10" numLanes="1" speed="22.22" disallow="tram rail_urban rail rail_electric rail_fast ship container cable_car subway aircraft wheelchair scooter drone" oneway="0"/>
    <type id="highway.track" priority="1" numLanes="1" speed="5.56" allow="pedestrian motorcycle moped bicycle" oneway="0"/>
    <type id="highway.trunk" priority="13" numLanes="2" speed="27.78" disallow="pedestrian bicycle tram rail_urban rail rail_electric rail_fast ship container cable_car subway aircraft wheelchair scooter drone" oneway="0"/>
    <type id="highway.trunk_link" priority="8" numLanes="1" speed="22.22" disallow="pedestrian bicycle tram rail_urban rail rail_electric rail_fast ship container cable_car subway aircraft wheelchair scooter drone" oneway="0"/>
    <type id="highway.unclassified" priority="4" numLanes="1" speed="13.89" disallow="tram rail_urban rail rail_electric rail_fast ship container cable_car subway aircraft wheelchair scooter drone" oneway="0"/>

    <edge id=":10081538825_0" function="internal">
        <lane id=":10081538825_0_0" index="0" allow="pedestrian bicycle" speed="5.47" length="5.30" shape="2378.59,1154.17 2377.73,1153.19 2376.67,1152.68 2375.39,1152.63 2373.91,1153.05"/>
    </edge>
    <edge id=":10081538825_1" function="internal">
        <lane id=":10081538825_1_0" index="0" allow="pedestrian delivery bicycle" speed="5.56" length="9.21" shape="2378.59,1154.17 2377.16,1151.84 2376.25,1150.21 2375.44,1148.52 2374.34,1146.02"/>
    </edge>
    <edge id=":10081538825_2" function="internal">
        <lane id=":10081538825_2_0" index="0" allow="pedestrian delivery bicycle" speed="3.65" length="4.67" shape="2378.59,1154.17 2378.64,1152.73 2379.11,1151.97 2380.00,1151.89 2381.31,1152.49"/>
    </edge>
    <edge id=":10081538825_3" function="internal">
        <lane id=":10081538825_3_0" index="0" allow="pedestrian delivery bicycle" speed="5.56" length="8.76" shape="2377.27,1144.73 2378.32,1147.11 2379.08,1148.71 2379.95,1150.27 2381.31,1152.49"/>
    </edge>
    <edge id=":10081538825_4" function="internal">
        <lane id=":10081538825_4_0" index="0" allow="pedestrian bicycle" speed="5.56" length="10.29" shape="2377.27,1144.73 2378.03,1147.45 2377.72,1149.75 2376.35,1151.61 2373.91,1153.05"/>
    </edge>
    <edge id=":10081538825_5" function="internal">
        <lane id=":10081538825_5_0" index="0" allow="pedestrian delivery bicycle" speed="3.65" length="4.67" shape="2377.27,1144.73 2377.02,1146.15 2376.45,1146.84 2375.55,1146.79 2374.34,1146.02"/>
    </edge>
    <edge id=":10081538825_6" function="internal">
        <lane id=":10081538825_6_0" index="0" allow="pedestrian bicycle" speed="5.01" length="5.03" shape="2372.70,1150.09 2373.89,1149.38 2374.56,1148.47 2374.71,1147.35 2374.34,1146.02"/>
    </edge>
    <edge id=":10081538825_7" function="internal">
        <lane id=":10081538825_7_0" index="0" allow="pedestrian bicycle" speed="5.56" length="9.86" shape="2372.70,1150.09 2375.37,1149.36 2377.69,1149.52 2379.67,1150.56 2381.31,1152.49"/>
    </edge>
    <edge id=":10081538825_8" function="internal">
        <lane id=":10081538825_8_0" index="0" allow="pedestrian motorcycle moped bicycle" speed="3.65" length="4.67" shape="2372.70,1150.09 2374.11,1150.37 2374.79,1150.96 2374.72,1151.85 2373.91,1153.05"/>
    </edge>
    <edge id=":10081538826_0" function="internal">
        <lane id=":10081538826_0_0" index="0" disallow="tram rail_urban rail rail_electric rail_fast ship container cable_car subway aircraft wheelchair scooter drone" speed="13.89" length="9.50" shape="2248.31,1294.26 2247.63,1303.73"/>
    </edge>
    <edge id=":10081538826_1" function="internal">
        <lane id=":10081538826_1_0" index="0" allow="pedestrian delivery bicycle" speed="6.74" length="3.44" shape="2248.31,1294.26 2247.65,1297.29 2247.45,1297.56"/>
    </edge>
    <edge id=":10081538826_7" function="internal">
        <lane id=":10081538826_7_0" index="0" allow="pedestrian delivery bicycle" speed="6.74" length="7.59" shape="2247.45,1297.56 2246.18,1299.21 2243.91,1300.02 2240.82,1299.72"/>
    </edge>
    <edge id=":10081538826_2" function="internal">
        <lane id=":10081538826_2_0" index="0" allow="pedestrian delivery bicycle" speed="4.88" length="5.21" shape="2241.58,1296.61 2243.04,1296.75 2244.11,1296.37 2244.81,1295.46 2245.12,1294.03"/>
    </edge>
    <edge id=":10081538826_3" function="internal">
        <lane id=":10081538826_3_0" index="0" allow="pedestrian delivery bicycle" speed="7.35" length="10.29" shape="2241.58,1296.61 2244.38,1297.65 2246.32,1299.18 2247.40,1301.21 2247.63,1303.73"/>
    </edge>
    <edge id=":10081538826_4" function="internal">
        <lane id=":10081538826_4_0" index="0" allow="pedestrian delivery bicycle" speed="3.65" length="4.67" shape="2241.58,1296.61 2242.56,1297.67 2242.76,1298.54 2242.18,1299.23 2240.82,1299.72"/>
    </edge>
    <edge id=":10081538826_5" function="internal">
        <lane id=":10081538826_5_0" index="0" allow="pedestrian delivery bicycle" speed="5.66" length="5.74" shape="2244.44,1303.50 2244.29,1302.20 2243.64,1301.13 2242.48,1300.31 2240.82,1299.72"/>
    </edge>
    <edge id=":10081538826_6" function="internal">
        <lane id=":10081538826_6_0" index="0" disallow="tram rail_urban rail rail_electric rail_fast ship container cable_car subway aircraft wheelchair scooter drone" speed="13.89" length="9.49" shape="2244.44,1303.50 2245.12,1294.03"/>
    </edge>
    <edge id=":10081538827_0" function="internal">
        <lane id=":10081538827_0_0" index="0" disallow="pedestrian bicycle tram rail_urban rail rail_electric rail_fast ship container cable_car subway aircraft wheelchair scooter drone" speed="13.89" length="6.14" shape="2232.80,1502.59 2226.98,1500.65"/>
    </edge>
    <edge id=":10081538827_1" function="internal">
        <lane id=":10081538827_1_0" index="0" allow="delivery" speed="5.02" length="5.02" shape="2232.80,1502.59 2231.58,1501.95 2230.86,1501.07 2230.65,1499.96 2230.95,1498.61"/>
    </edge>
    <edge id=":10081538833_0" function="internal">
        <lane id=":10081538833_0_0" index="0" allow="pedestrian delivery bicycle" speed="3.65" length="4.67" shape="2237.84,1485.16 2236.65,1485.98 2235.76,1486.05 2235.17,1485.38 2234.87,1483.97"/>
    </edge>
    <edge id=":10081538833_1" function="internal">
        <lane id=":10081538833_1_0" index="0" allow="pedestrian delivery bicycle" speed="5.56" length="2.32" shape="2235.73,1486.12 2234.87,1483.97"/>
    </edge>
    <edge id=":10081671361_0" function="internal">
        <lane id=":10081671361_0_0" index="0" disallow="tram rail_urban rail rail_electric rail_fast ship container cable_car subway aircraft wheelchair scooter drone" speed="3.92" length="2.34" shape="2534.98,1437.30 2534.36,1437.20 2533.83,1437.31 2533.39,1437.63 2533.06,1438.17"/>
    </edge>
    <edge id=":10081671361_1" function="internal">
        <lane id=":10081671361_1_0" index="0" disallow="tram rail_urban rail rail_electric rail_fast ship container cable_car subway aircraft wheelchair scooter drone" speed="6.10" length="7.03" shape="2530.14,1436.85 2531.16,1435.24 2532.46,1434.28 2534.04,1433.94 2535.91,1434.24"/>
    </edge>
    <edge id=":10081671362_0" function="internal">
        <lane id=":10081671362_0_0" index="0" disallow="tram rail_urban rail rail_electric rail_fast ship container cable_car subway aircraft wheelchair scooter drone" speed="13.89" length="14.65" shape="2594.39,1447.70 2586.53,1460.06"/>
    </edge>
    <edge id=":10081671362_1" function="internal">
        <lane id=":10081671362_1_0" index="0" disallow="tram rail_urban rail rail_electric rail_fast ship container cable_car subway aircraft wheelchair scooter drone" speed="9.09" length="3.72" shape="2594.39,1447.70 2592.03,1450.36 2591.88,1450.43"/>
    </edge>
    <edge id=":10081671362_2" function="internal">
        <lane id=":10081671362_2_0" index="0" disallow="tram rail_urban rail rail_electric rail_fast ship container cable_car subway aircraft wheelchair scooter drone" speed="3.65" length="1.44" shape="2594.39,1447.70 2593.07,1448.28"/>
    </edge>
    <edge id=":10081671362_9" function="internal">
        <lane id=":10081671362_9_0" index="0" disallow="tram rail_urban rail rail_electric rail_fast ship container cable_car subway aircraft wheelchair scooter drone" speed="9.09" length="11.05" shape="2591.88,1450.43 2589.06,1451.86 2585.47,1452.21 2581.27,1451.42"/>
    </edge>
    <edge id=":10081671362_10" function="internal">
        <lane id=":10081671362_10_0" index="0" disallow="tram rail_urban rail rail_electric rail_fast ship container cable_car subway aircraft wheelchair scooter drone" speed="3.65" length="3.23" shape="2593.07,1448.28 2592.18,1448.19 2591.72,1447.43 2591.69,1445.99"/>
    </edge>
    <edge id=":10081671362_3" function="internal">
        <lane id=":10081671362_3_0" index="0" disallow="tram rail_urban rail rail_electric rail_fast ship container cable_car subway aircraft wheelchair scooter drone" speed="7.77" length="10.56" shape="2582.21,1448.36 2585.30,1448.97 2587.92,1448.78 2590.04,1447.79 2591.69,1445.99"/>
    </edge>
    <edge id=":10081671362_4" function="internal">
        <lane id=":10081671362_4_0" index="0" disallow="tram rail_urban rail rail_electric rail_fast ship container cable_car subway aircraft wheelchair scooter drone" speed="7.60" length="15.34" shape="2582.21,1448.36 2586.17,1450.22 2588.22,1452.79 2588.34,1456.07 2586.53,1460.06"/>
    </edge>
    <edge id=":10081671362_5" function="internal">
        <lane id=":10081671362_5_0" index="0" disallow="tram rail_urban rail rail_electric rail_fast ship container cable_car subway aircraft wheelchair scooter drone" speed="3.65" length="4.67" shape="2582.21,1448.36 2583.12,1449.47 2583.27,1450.35 2582.65,1451.00 2581.27,1451.42"/>
    </edge>
    <edge id=":10081671362_6" function="internal">
        <lane id=":10081671362_6_0" index="0" disallow="tram rail_urban rail rail_electric rail_fast ship container cable_car subway aircraft wheelchair scooter drone" speed="6.00" length="9.08" shape="2583.83,1458.35 2584.90,1455.98 2584.83,1454.04 2583.62,1452.52 2581.27,1451.42"/>
    </edge>
    <edge id=":10081671362_7" function="internal">
        <lane id=":10081671362_7_0" index="0" disallow="tram rail_urban rail rail_electric rail_fast ship container cable_car subway aircraft wheelchair scooter drone" speed="13.89" length="14.64" shape="2583.83,1458.35 2591.69,1445.99"/>
    </edge>
    <edge id=":10081671362_8" function="internal">
        <lane id=":10081671362_8_0" index="0" disallow="tram rail_urban rail rail_electric rail_fast ship container cable_car subway aircraft wheelchair scooter drone" speed="3.65" length="1.44" shape="2583.83,1458.35 2585.15,1457.76"/>
    </edge>
    <edge id=":10081671362_11" function="internal">
        <lane id=":10081671362_11_0" index="0" disallow="tram rail_urban rail rail_electric rail_fast ship container cable_car subway aircraft wheelchair scooter drone" speed="3.65" length="3.23" shape="2585.15,1457.76 2586.04,1457.86 2586.50,1458.62 2586.53,1460.06"/>
    </edge>
    <edge id=":10081671363_0" function="internal">
        <lane id=":10081671363_0_0" index="0" disallow="tram rail_urban rail rail_electric rail_fast ship container cable_car subway aircraft wheelchair scooter drone" speed="6.33" length="9.04" shape="2843.88,1166.12 2842.93,1163.79 2841.48,1162.40 2839.52,1161.94 2837.06,1162.40"/>
    </edge>
    <edge id=":10081671363_1" function="internal">
        <lane id=":10081671363_1_0" index="0" disallow="tram rail_urban rail rail_electric rail_fast ship container cable_car subway aircraft wheelchair scooter drone" speed="8.06" length="14.42" shape="2843.88,1166.12 2843.45,1162.13 2844.36,1158.97 2846.62,1156.65 2850.21,1155.17"/>
    </edge>
    <edge id=":10081671363_2" function="internal">
        <lane id=":10081671363_2_0" index="0" disallow="tram rail_urban rail rail_electric rail_fast ship container cable_car subway aircraft wheelchair scooter drone" speed="3.65" length="4.67" shape="2843.88,1166.12 2844.37,1164.76 2845.05,1164.18 2845.92,1164.37 2846.99,1165.34"/>
    </edge>
    <edge id=":10081671363_3" function="internal">
        <lane id=":10081671363_3_0" index="0" disallow="tram rail_urban rail rail_electric rail_fast ship container cable_car subway aircraft wheelchair scooter drone" speed="6.58" length="9.26" shape="2850.99,1158.27 2848.70,1159.22 2847.27,1160.72 2846.70,1162.76 2846.99,1165.34"/>
    </edge>
    <edge id=":10081671363_4" function="internal">
        <lane id=":10081671363_4_0" index="0" disallow="tram rail_urban rail rail_electric rail_fast ship container cable_car subway aircraft wheelchair scooter drone" speed="13.89" length="14.53" shape="2850.99,1158.27 2837.06,1162.40"/>
    </edge>
    <edge id=":10081671363_5" function="internal">
        <lane id=":10081671363_5_0" index="0" disallow="tram rail_urban rail rail_electric rail_fast ship container cable_car subway aircraft wheelchair scooter drone" speed="3.65" length="1.44" shape="2850.99,1158.27 2849.63,1157.79"/>
    </edge>
    <edge id=":10081671363_9" function="internal">
        <lane id=":10081671363_9_0" index="0" disallow="tram rail_urban rail rail_electric rail_fast ship container cable_car subway aircraft wheelchair scooter drone" speed="3.65" length="3.23" shape="2849.63,1157.79 2849.05,1157.11 2849.24,1156.24 2850.21,1155.17"/>
    </edge>
    <edge id=":10081671363_6" function="internal">
        <lane id=":10081671363_6_0" index="0" disallow="tram rail_urban rail rail_electric rail_fast ship container cable_car subway aircraft wheelchair scooter drone" speed="13.89" length="14.80" shape="2836.02,1159.37 2850.21,1155.17"/>
    </edge>
    <edge id=":10081671363_7" function="internal">
        <lane id=":10081671363_7_0" index="0" disallow="tram rail_urban rail rail_electric rail_fast ship container cable_car subway aircraft wheelchair scooter drone" speed="7.86" length="4.46" shape="2836.02,1159.37 2839.98,1158.63 2840.40,1158.73"/>
    </edge>
    <edge id=":10081671363_8" function="internal">
        <lane id=":10081671363_8_0" index="0" disallow="tram rail_urban rail rail_electric rail_fast ship container cable_car subway aircraft wheelchair scooter drone" speed="3.65" length="1.44" shape="2836.02,1159.37 2837.42,1159.74"/>
    </edge>
    <edge id=":10081671363_10" function="internal">
        <lane id=":10081671363_10_0" index="0" disallow="tram rail_urban rail rail_electric rail_fast ship container cable_car subway aircraft wheelchair scooter drone" speed="7.86" length="10.06" shape="2840.40,1158.73 2843.13,1159.37 2845.46,1161.61 2846.99,1165.34"/>
    </edge>
    <edge id=":10081671363_11" function="internal">
        <lane id=":10081671363_11_0" index="0" disallow="tram rail_urban rail rail_electric rail_fast ship container cable_car subway aircraft wheelchair scooter drone" speed="3.65" length="3.23" shape="2837.42,1159.74 2838.05,1160.37 2837.93,1161.26 2837.06,1162.40"/>
    </edge>
    <edge id=":10081671364_0" function="internal">
        <lane id=":10081671364_0_0" index="0" disallow="tram rail_urban rail rail_electric rail_fast ship container cable_car subway aircraft wheelchair scooter drone" speed="22.22" length="9.44" shape="2862.28,1217.30 2852.90,1218.03"/>
        <lane id=":10081671364_0_1" index="1" disallow="tram rail_urban rail rail_electric rail_fast ship container cable_car subway aircraft wheelchair scooter drone" speed="22.22" length="9.44" shape="2862.06,1214.11 2852.63,1214.84"/>
    </edge>
    <edge id=":10081671364_2" function="internal">
        <lane id=":10081671364_2_0" index="0" disallow="tram rail_urban rail rail_electric rail_fast ship container cable_car subway aircraft wheelchair scooter drone" speed="6.60" length="8.07" shape="2862.06,1214.11 2859.35,1214.09 2857.30,1213.61 2855.91,1212.67 2855.17,1211.28"/>
    </edge>
    <edge id=":10081671364_3" function="internal">
        <lane id=":10081671364_3_0" index="0" disallow="tram rail_urban rail rail_electric rail_fast ship container cable_car subway aircraft wheelchair scooter drone" speed="5.93" length="8.23" shape="2858.28,1210.50 2858.28,1212.19 2857.34,1213.48 2855.45,1214.36 2852.63,1214.84"/>
    </edge>
    <edge id=":10081671364_4" function="internal">
        <lane id=":10081671364_4_0" index="0" disallow="tram rail_urban rail rail_electric rail_fast ship container cable_car subway aircraft wheelchair scooter drone" speed="3.65" length="4.67" shape="2858.28,1210.50 2857.79,1211.86 2857.11,1212.44 2856.24,1212.25 2855.17,1211.28"/>
    </edge>
    <edge id=":10091816499_0" function="internal">
        <lane id=":10091816499_0_0" index="0" disallow="tram rail_urban rail rail_electric rail_fast ship container cable_car subway aircraft wheelchair scooter drone" speed="13.89" length="10.16" shape="1963.51,2102.70 1953.80,2105.69"/>
    </edge>
    <edge id=":10091816499_1" function="internal">
        <lane id=":10091816499_1_0" index="0" disallow="tram rail_urban rail rail_electric rail_fast ship container cable_car subway aircraft wheelchair scooter drone" speed="8.44" length="3.88" shape="1963.51,2102.70 1959.83,2103.24 1959.67,2103.20"/>
    </edge>
    <edge id=":10091816499_2" function="internal">
        <lane id=":10091816499_2_0" index="0" disallow="tram rail_urban rail rail_electric rail_fast ship container cable_car subway aircraft wheelchair scooter drone" speed="3.65" length="1.44" shape="1963.51,2102.70 1962.12,2102.29"/>
    </edge>
    <edge id=":10091816499_9" function="internal">
        <lane id=":10091816499_9_0" index="0" disallow="tram rail_urban rail rail_electric rail_fast ship container cable_car subway aircraft wheelchair scooter drone" speed="8.44" length="10.52" shape="1959.67,2103.20 1956.67,2102.46 1954.04,2100.34 1951.92,2096.88"/>
    </edge>
    <edge id=":10091816499_10" function="internal">
        <lane id=":10091816499_10_0" index="0" disallow="tram rail_urban rail rail_electric rail_fast ship container cable_car subway aircraft wheelchair scooter drone" speed="3.65" length="3.23" shape="1962.12,2102.29 1961.51,2101.64 1961.65,2100.76 1962.56,2099.64"/>
    </edge>
    <edge id=":10091816499_3" function="internal">
        <lane id=":10091816499_3_0" index="0" disallow="tram rail_urban rail rail_electric rail_fast ship container cable_car subway aircraft wheelchair scooter drone" speed="7.03" length="9.70" shape="1954.84,2095.57 1956.28,2097.95 1958.05,2099.42 1960.14,2099.98 1962.56,2099.64"/>
    </edge>
    <edge id=":10091816499_4" function="internal">
        <lane id=":10091816499_4_0" index="0" disallow="tram rail_urban rail rail_electric rail_fast ship container cable_car subway aircraft wheelchair scooter drone" speed="6.99" length="11.58" shape="1954.84,2095.57 1956.23,2099.43 1956.52,2102.40 1955.71,2104.49 1953.80,2105.69"/>
    </edge>
    <edge id=":10091816499_5" function="internal">
        <lane id=":10091816499_5_0" index="0" disallow="tram rail_urban rail rail_electric rail_fast ship container cable_car subway aircraft wheelchair scooter drone" speed="3.65" length="4.67" shape="1954.84,2095.57 1954.60,2096.99 1954.04,2097.68 1953.15,2097.65 1951.92,2096.88"/>
    </edge>
    <edge id=":10091816499_6" function="internal">
        <lane id=":10091816499_6_0" index="0" disallow="tram rail_urban rail rail_electric rail_fast ship container cable_car subway aircraft wheelchair scooter drone" speed="5.30" length="6.18" shape="1952.86,2102.63 1953.34,2102.10 1953.35,2100.97 1952.88,2099.23 1951.92,2096.88"/>
    </edge>
    <edge id=":10091816499_7" function="internal">
        <lane id=":10091816499_7_0" index="0" disallow="tram rail_urban rail rail_electric rail_fast ship container cable_car subway aircraft wheelchair scooter drone" speed="13.89" length="10.15" shape="1952.86,2102.63 1962.56,2099.64"/>
    </edge>
    <edge id=":10091816499_8" function="internal">
        <lane id=":10091816499_8_0" index="0" disallow="tram rail_urban rail rail_electric rail_fast ship container cable_car subway aircraft wheelchair scooter drone" speed="3.65" length="1.44" shape="1952.86,2102.63 1954.24,2103.04"/>
    </edge>
    <edge id=":10091816499_11" function="internal">
        <lane id=":10091816499_11_0" index="0" disallow="tram rail_urban rail rail_electric rail_fast ship container cable_car subway aircraft wheelchair scooter drone" speed="3.65" length="3.23" shape="1954.24,2103.04 1954.86,2103.69 1954.71,2104.57 1953.80,2105.69"/>
    </edge>
    <edge id=":10091816502_0" function="internal">
        <lane id=":10091816502_0_0" index="0" disallow="tram rail_urban rail rail_electric rail_fast ship container cable_car subway aircraft wheelchair scooter drone" speed="3.65" length="4.67" shape="1887.50,2064.39 1887.98,2063.03 1888.65,2062.44 1889.53,2062.63 1890.60,2063.59"/>
    </edge>
    <edge id=":10091816505_0" function="internal">
        <lane id=":10091816505_0_0" index="0" disallow="tram rail_urban rail rail_electric rail_fast ship container cable_car subway aircraft wheelchair scooter drone" speed="3.65" length="4.67" shape="1872.27,2065.54 1872.79,2064.20 1873.49,2063.64 1874.36,2063.86 1875.39,2064.86"/>
    </edge>
    <edge id=":10091816515_0" function="internal">
        <lane id=":10091816515_0_0" index="0" disallow="tram rail_urban rail rail_electric rail_fast ship container cable_car subway aircraft wheelchair scooter drone" speed="3.65" length="4.67" shape="1826.19,2101.86 1824.78,2101.53 1824.12,2100.93 1824.21,2100.04 1825.05,2098.86"/>
    </edge>
    <edge id=":10091816516_0" function="internal">
        <lane id=":10091816516_0_0" index="0" disallow="tram rail_urban rail rail_electric rail_fast ship container cable_car subway aircraft wheelchair scooter drone" speed="3.91" length="2.98" shape="1863.12,2089.85 1862.87,2089.05 1862.42,2088.57 1861.79,2088.43 1860.97,2088.61"/>
    </edge>
    <edge id=":10091816516_1" function="internal">
        <lane id=":10091816516_1_0" index="0" disallow="tram rail_urban rail rail_electric rail_fast ship container cable_car subway aircraft wheelchair scooter drone" speed="6.08" length="8.95" shape="1859.83,2085.62 1862.30,2085.07 1864.19,2085.50 1865.52,2086.93 1866.28,2089.34"/>
    </edge>
    <edge id=":10095107480_0" function="internal">
        <lane id=":10095107480_0_0" index="0" disallow="pedestrian bicycle tram rail_urban rail rail_electric rail_fast ship container cable_car subway aircraft wheelchair scooter drone" speed="13.89" length="7.96" shape="1763.94,1428.08 1756.01,1427.36"/>
    </edge>
    <edge id=":10095107480_1" function="internal">
        <lane id=":10095107480_1_0" index="0" disallow="pedestrian bicycle tram rail_urban rail rail_electric rail_fast ship container cable_car subway aircraft wheelchair scooter drone" speed="7.76" length="7.35" shape="1761.99,1423.58 1760.50,1425.30 1759.00,1426.50 1757.51,1427.19 1756.01,1427.36"/>
    </edge>
    <edge id=":10095126151_0" function="internal">
        <lane id=":10095126151_0_0" index="0" disallow="tram rail_urban rail rail_electric rail_fast ship container cable_car subway aircraft wheelchair scooter drone" speed="5.82" length="9.14" shape="1758.38,1260.51 1757.08,1258.18 1755.48,1257.15 1753.61,1257.42 1751.45,1258.99"/>
    </edge>
    <edge id=":10095126151_1" function="internal">
        <lane id=":10095126151_1_0" index="0" disallow="tram rail_urban rail rail_electric rail_fast ship container cable_car subway aircraft wheelchair scooter drone" speed="9.57" length="15.23" shape="1758.38,1260.51 1757.15,1256.16 1757.06,1252.36 1758.11,1249.10 1760.30,1246.40"/>
    </edge>
    <edge id=":10095126151_2" function="internal">
        <lane id=":10095126151_2_0" index="0" disallow="tram rail_urban rail rail_electric rail_fast ship container cable_car subway aircraft wheelchair scooter drone" speed="3.65" length="4.67" shape="1758.38,1260.51 1758.69,1259.10 1759.29,1258.44 1760.18,1258.52 1761.36,1259.34"/>
    </edge>
    <edge id=":10095126151_3" function="internal">
        <lane id=":10095126151_3_0" index="0" disallow="tram rail_urban rail rail_electric rail_fast ship container cable_car subway aircraft wheelchair scooter drone" speed="8.32" length="11.30" shape="1762.41,1248.80 1760.91,1250.73 1760.23,1253.13 1760.38,1256.00 1761.36,1259.34"/>
    </edge>
    <edge id=":10095126151_4" function="internal">
        <lane id=":10095126151_4_0" index="0" disallow="tram rail_urban rail rail_electric rail_fast ship container cable_car subway aircraft wheelchair scooter drone" speed="27.78" length="14.97" shape="1762.41,1248.80 1751.45,1258.99"/>
    </edge>
    <edge id=":10095126151_5" function="internal">
        <lane id=":10095126151_5_0" index="0" disallow="tram rail_urban rail rail_electric rail_fast ship container cable_car subway aircraft wheelchair scooter drone" speed="3.65" length="1.44" shape="1762.41,1248.80 1760.98,1248.99"/>
    </edge>
    <edge id=":10095126151_9" function="internal">
        <lane id=":10095126151_9_0" index="0" disallow="tram rail_urban rail rail_electric rail_fast ship container cable_car subway aircraft wheelchair scooter drone" speed="3.65" length="3.23" shape="1760.98,1248.99 1760.16,1248.66 1759.93,1247.79 1760.30,1246.40"/>
    </edge>
    <edge id=":10095126151_6" function="internal">
        <lane id=":10095126151_6_0" index="0" disallow="tram rail_urban rail rail_electric rail_fast ship container cable_car subway aircraft wheelchair scooter drone" speed="27.78" length="15.12" shape="1749.23,1256.69 1760.30,1246.40"/>
    </edge>
    <edge id=":10095126151_7" function="internal">
        <lane id=":10095126151_7_0" index="0" disallow="tram rail_urban rail rail_electric rail_fast ship container cable_car subway aircraft wheelchair scooter drone" speed="7.48" length="4.68" shape="1749.23,1256.69 1753.01,1253.94"/>
    </edge>
    <edge id=":10095126151_8" function="internal">
        <lane id=":10095126151_8_0" index="0" disallow="tram rail_urban rail rail_electric rail_fast ship container cable_car subway aircraft wheelchair scooter drone" speed="3.65" length="1.44" shape="1749.23,1256.69 1750.64,1256.43"/>
    </edge>
    <edge id=":10095126151_10" function="internal">
        <lane id=":10095126151_10_0" index="0" disallow="tram rail_urban rail rail_electric rail_fast ship container cable_car subway aircraft wheelchair scooter drone" speed="7.48" length="11.32" shape="1753.01,1253.94 1756.29,1253.46 1759.08,1255.26 1761.36,1259.34"/>
    </edge>
    <edge id=":10095126151_11" function="internal">
        <lane id=":10095126151_11_0" index="0" disallow="tram rail_urban rail rail_electric rail_fast ship container cable_car subway aircraft wheelchair scooter drone" speed="3.65" length="3.23" shape="1750.64,1256.43 1751.49,1256.73 1751.76,1257.58 1751.45,1258.99"/>
    </edge>
    <edge id=":10095126152_0" function="internal">
        <lane id=":10095126152_0_0" index="0" disallow="tram rail_urban rail rail_electric rail_fast ship container cable_car subway aircraft wheelchair scooter drone" speed="27.78" length="18.17" shape="1725.38,1284.21 1722.26,1287.10 1718.68,1290.39 1715.26,1293.80 1712.60,1297.08"/>
    </edge>
    <edge id=":10095126152_1" function="internal">
        <lane id=":10095126152_1_0" index="0" allow="pedestrian delivery bicycle" speed="4.87" length="1.88" shape="1725.38,1284.21 1723.79,1283.19"/>
    </edge>
    <edge id=":10095126152_7" function="internal">