<routes>
    <vType id="car" accel="0.8" decel="4.5" sigma="0.5" length="5" minGap="2.5" maxSpeed="15"/>
    <vType id="truck" accel="0.4" decel="3.5" sigma="0.5" length="12" minGap="3.0" maxSpeed="10"/>
    <vType id="bus" accel="0.6" decel="4.0" sigma="0.5" length="10" minGap="3.0" maxSpeed="12"/>
    <flow id="f_0" type="bus" begin="0" end="3600" probability="0.105" from="-133883972#0" to="995122863"/>
    <flow id="f_1" type="car" begin="0" end="3600" probability="0.237" from="1109900835" to="1090570624#0"/>
    <flow id="f_2" type="car" begin="0" end="3600" probability="0.079" from="128220131#0" to="694335186#1"/>
    <flow id="f_3" type="car" begin="0" end="3600" probability="0.220" from="1290443373#2" to="995122863"/>
    <flow id="f_4" type="car" begin="0" end="3600" probability="0.102" from="656181226#0" to="799569566"/>
    <flow id="f_5" type="car" begin="0" end="3600" probability="0.087" from="-59482112#0" to="40696200#1"/>
    <flow id="f_6" type="bus" begin="0" end="3600" probability="0.211" from="-656181226#1" to="1155963376#1"/>
    <flow id="f_7" type="car" begin="0" end="3600" probability="0.221" from="229976708#2" to="-243553548#3"/>
    <flow id="f_8" type="car" begin="0" end="3600" probability="0.236" from="-694563674" to="-256258848"/>
    <flow id="f_9" type="car" begin="0" end="3600" probability="0.084" from="-40696206#0" to="799715255#0"/>
    <flow id="f_10" type="car" begin="0" end="3600" probability="0.148" from="229976708#10" to="-1424147361"/>
    <flow id="f_11" type="car" begin="0" end="3600" probability="0.197" from="1155963376#0" to="491889864#1"/>
    <flow id="f_12" type="car" begin="0" end="3600" probability="0.159" from="-1427485004" to="-229976708#12"/>
    <flow id="f_13" type="car" begin="0" end="3600" probability="0.052" from="-1074282737" to="695251940#0"/>
    <flow id="f_14" type="car" begin="0" end="3600" probability="0.218" from="1066726720#0" to="-744553757"/>
    <flow id="f_15" type="car" begin="0" end="3600" probability="0.139" from="160331539#0" to="692207400#2"/>
    <flow id="f_16" type="truck" begin="0" end="3600" probability="0.146" from="243554072#2" to="-559801781#1"/>
    <flow id="f_17" type="bus" begin="0" end="3600" probability="0.161" from="-1280500777" to="-694563680#1"/>
    <flow id="f_18" type="car" begin="0" end="3600" probability="0.051" from="243554072#4" to="-1185467340"/>
    <flow id="f_19" type="car" begin="0" end="3600" probability="0.202" from="310665111#0" to="1472985947#0"/>
    <flow id="f_20" type="car" begin="0" end="3600" probability="0.171" from="243553545#4" to="59482082#2"/>
    <flow id="f_21" type="car" begin="0" end="3600" probability="0.140" from="-27994464#3" to="-559801795"/>
    <flow id="f_22" type="car" begin="0" end="3600" probability="0.079" from="-310665594#0" to="1351994265#0"/>
    <flow id="f_23" type="truck" begin="0" end="3600" probability="0.165" from="1087955058" to="1472985949#3"/>
    <flow id="f_24" type="car" begin="0" end="3600" probability="0.127" from="40696213" to="-27934968#4"/>
    <flow id="f_25" type="truck" begin="0" end="3600" probability="0.155" from="1371022473" to="464465163#1"/>
    <flow id="f_26" type="car" begin="0" end="3600" probability="0.228" from="40696203#0" to="491889865#1"/>
    <flow id="f_27" type="car" begin="0" end="3600" probability="0.231" from="-1110221920" to="744561216#2"/>
    <flow id="f_28" type="car" begin="0" end="3600" probability="0.110" from="-1313190259" to="491889865#0"/>
    <flow id="f_29" type="car" begin="0" end="3600" probability="0.094" from="1109600985" to="27934960#3"/>
    <flow id="f_30" type="car" begin="0" end="3600" probability="0.244" from="694563703" to="688824218#2"/>
    <flow id="f_31" type="car" begin="0" end="3600" probability="0.233" from="1090570623" to="-694981024"/>
    <flow id="f_32" type="truck" begin="0" end="3600" probability="0.064" from="1110164238#0" to="27934968#0"/>
    <flow id="f_33" type="truck" begin="0" end="3600" probability="0.115" from="128220208#0" to="-40696199#6"/>
    <flow id="f_34" type="truck" begin="0" end="3600" probability="0.070" from="-799715254" to="-328436447"/>
    <flow id="f_35" type="car" begin="0" end="3600" probability="0.173" from="694335186#1" to="744553759"/>
    <flow id="f_36" type="bus" begin="0" end="3600" probability="0.179" from="-147575119" to="-694335187"/>
    <flow id="f_37" type="car" begin="0" end="3600" probability="0.248" from="245809758#1" to="148697299"/>
    <flow id="f_38" type="truck" begin="0" end="3600" probability="0.199" from="544999264#1" to="744806547"/>
    <flow id="f_39" type="car" begin="0" end="3600" probability="0.197" from="27934975#0" to="-695251943"/>
    <flow id="f_40" type="car" begin="0" end="3600" probability="0.211" from="-696064753" to="-133883973#4"/>
    <flow id="f_41" type="car" begin="0" end="3600" probability="0.166" from="1185467340" to="27934975#1"/>
    <flow id="f_42" type="car" begin="0" end="3600" probability="0.175" from="1422674079" to="-40696199#3"/>
    <flow id="f_43" type="car" begin="0" end="3600" probability="0.092" from="27934968#2" to="239438610#5"/>
    <flow id="f_44" type="car" begin="0" end="3600" probability="0.088" from="-799569566" to="-1074282737"/>
    <flow id="f_45" type="car" begin="0" end="3600" probability="0.086" from="49989519#1" to="-694981024"/>
    <flow id="f_46" type="car" begin="0" end="3600" probability="0.139" from="-27934975#0" to="245809758#1"/>
    <flow id="f_47" type="car" begin="0" end="3600" probability="0.175" from="1311812124" to="688824218#3"/>
    <flow id="f_48" type="truck" begin="0" end="3600" probability="0.155" from="-40696199#1" to="27934968#4"/>
    <flow id="f_49" type="car" begin="0" end="3600" probability="0.243" from="694563701#0" to="-775976220"/>
    <flow id="f_50" type="bus" begin="0" end="3600" probability="0.142" from="-632127188#1" to="1208112303"/>
    <flow id="f_51" type="truck" begin="0" end="3600" probability="0.243" from="1208112303" to="886153775#1"/>
    <flow id="f_52" type="car" begin="0" end="3600" probability="0.209" from="1167293940" to="1422674080#1"/>
    <flow id="f_53" type="bus" begin="0" end="3600" probability="0.217" from="-1393438377" to="886485936"/>
    <flow id="f_54" type="car" begin="0" end="3600" probability="0.237" from="328436446#2" to="-1084559539"/>
    <flow id="f_55" type="car" begin="0" end="3600" probability="0.174" from="-694563705#3" to="27934960#3"/>
    <flow id="f_56" type="truck" begin="0" end="3600" probability="0.132" from="59482112#3" to="128220208#1"/>
    <flow id="f_57" type="car" begin="0" end="3600" probability="0.206" from="-40696199#6" to="322022988#6"/>
    <flow id="f_58" type="car" begin="0" end="3600" probability="0.169" from="-632127188#1" to="692207400#2"/>
    <flow id="f_59" type="truck" begin="0" end="3600" probability="0.166" from="1155963376#2" to="239438610#6"/>
    <flow id="f_60" type="truck" begin="0" end="3600" probability="0.240" from="1371022473" to="-694563705#2"/>
    <flow id="f_61" type="car" begin="0" end="3600" probability="0.089" from="28103471" to="-147575130#1"/>
    <flow id="f_62" type="car" begin="0" end="3600" probability="0.248" from="-1090570624#1" to="27994446#1"/>
    <flow id="f_63" type="car" begin="0" end="3600" probability="0.063" from="-40696200#4" to="-695251942"/>
    <flow id="f_64" type="car" begin="0" end="3600" probability="0.194" from="1427484874#1" to="-27935033"/>
    <flow id="f_65" type="truck" begin="0" end="3600" probability="0.205" from="-290639912#1" to="694563705#3"/>
    <flow id="f_66" type="truck" begin="0" end="3600" probability="0.088" from="-164040895#2" to="380980308#1"/>
    <flow id="f_67" type="car" begin="0" end="3600" probability="0.056" from="1063933802#3" to="775976220"/>
    <flow id="f_68" type="truck" begin="0" end="3600" probability="0.168" from="1384907601#0" to="694981025"/>
    <flow id="f_69" type="car" begin="0" end="3600" probability="0.128" from="-694563705#2" to="-27994464#3"/>
    <flow id="f_70" type="car" begin="0" end="3600" probability="0.168" from="886153774" to="27934968#3"/>
    <flow id="f_71" type="car" begin="0" end="3600" probability="0.073" from="243553548#3" to="-40696199#0"/>
    <flow id="f_72" type="car" begin="0" end="3600" probability="0.235" from="59482082#2" to="-692909359#0"/>
    <flow id="f_73" type="car" begin="0" end="3600" probability="0.200" from="-59482082#1" to="322022988#1"/>
    <flow id="f_74" type="car" begin="0" end="3600" probability="0.202" from="1185209421#0" to="1303068639#0"/>
    <flow id="f_75" type="car" begin="0" end="3600" probability="0.054" from="-1118275525" to="-694563679"/>
    <flow id="f_76" type="bus" begin="0" end="3600" probability="0.225" from="1331247892" to="-750614313#2"/>
    <flow id="f_77" type="car" begin="0" end="3600" probability="0.086" from="1110221362" to="-169075391#0"/>
    <flow id="f_78" type="car" begin="0" end="3600" probability="0.099" from="1370764615" to="-40696203#1"/>
    <flow id="f_79" type="bus" begin="0" end="3600" probability="0.098" from="-1090570627" to="-290639912#1"/>
    <flow id="f_80" type="car" begin="0" end="3600" probability="0.067" from="-1102833430" to="-27994428#0"/>
    <flow id="f_81" type="car" begin="0" end="3600" probability="0.175" from="310665594#0" to="28120427#1"/>
    <flow id="f_82" type="car" begin="0" end="3600" probability="0.221" from="694563681#1" to="40696199#0"/>
    <flow id="f_83" type="car" begin="0" end="3600" probability="0.169" from="1066726725" to="-695251941"/>
    <flow id="f_84" type="truck" begin="0" end="3600" probability="0.087" from="1414001560#0" to="-694563679"/>
    <flow id="f_85" type="bus" begin="0" end="3600" probability="0.136" from="-27934983#0" to="-27934968#4"/>
    <flow id="f_86" type="car" begin="0" end="3600" probability="0.116" from="-1185209422#1" to="-1450643781"/>
    <flow id="f_87" type="car" begin="0" end="3600" probability="0.201" from="-1063933802#1" to="290639912#4"/>
    <flow id="f_88" type="car" begin="0" end="3600" probability="0.116" from="-363083979#3" to="1299917512"/>
    <flow id="f_89" type="truck" begin="0" end="3600" probability="0.088" from="-726834057#1" to="243897293"/>
    <flow id="f_90" type="car" begin="0" end="3600" probability="0.226" from="1215278306#1" to="-27934968#2"/>
    <flow id="f_91" type="car" begin="0" end="3600" probability="0.054" from="1185468746" to="-40696201#1"/>
    <flow id="f_92" type="car" begin="0" end="3600" probability="0.090" from="-695251942" to="1090570621"/>
    <flow id="f_93" type="car" begin="0" end="3600" probability="0.111" from="727364338#0" to="1226665350"/>
    <flow id="f_94" type="truck" begin="0" end="3600" probability="0.075" from="-1109898611" to="27934930"/>
    <flow id="f_95" type="car" begin="0" end="3600" probability="0.196" from="1109948700#0" to="237025636"/>
    <flow id="f_96" type="car" begin="0" end="3600" probability="0.159" from="148323166" to="1262069472"/>
    <flow id="f_97" type="car" begin="0" end="3600" probability="0.083" from="-1102833430" to="-164040895#4"/>
    <flow id="f_98" type="truck" begin="0" end="3600" probability="0.229" from="1073384217" to="-1185467975"/>
    <flow id="f_99" type="car" begin="0" end="3600" probability="0.212" from="-1109948513" to="-59482112#2"/>
</routes>
